%chk=PEG3.chk
# hf/3-21g geom=connectivity

Title Card Required

0 1
 C                 -3.87188190    1.00907028    0.00000000
 H                 -3.51522748    0.00026028    0.00000000
 H                 -3.51520906    1.51346847   -0.87365150
 H                 -4.94188190    1.00908346    0.00000000
 O                 -3.39520699    1.68317253    1.16759033
 C                 -3.87151613    3.03151567    1.16821137
 H                 -4.94151458    3.03180043    1.16641006
 H                 -3.51324568    3.53674535    0.29569475
 C                 -3.36010802    3.75601408    2.42724425
 H                 -2.29010970    3.75563564    2.42909848
 H                 -3.71846588    3.25084649    3.29976093
 O                 -3.83630020    5.10439856    2.42779399
 C                 -3.36153848    5.77782440    3.59655357
 H                 -2.29153996    5.77776373    3.59833272
 H                 -3.71968544    5.27295135    4.46932728
 C                 -3.87479089    7.22977893    3.59651499
 H                 -3.51628406    7.73476357    2.72395360
 H                 -4.94478869    7.22993785    3.59435196
 O                 -3.40038656    7.90296749    4.76555635
 C                 -3.87638161    9.25142157    4.76611399
 H                 -4.94637943    9.25195580    4.76402400
 H                 -3.51775801    9.75660981    3.89371846
 C                 -3.36514439    9.97574005    6.02531979
 H                 -2.29514657    9.97520652    6.02740835
 H                 -3.72376649    9.47055099    6.89771546
 O                 -3.84114145   11.32419342    6.02587866
 H                 -3.52266102   11.77612391    6.81069013

 1 2 1.0 3 1.0 4 1.0 5 1.0
 2
 3
 4
 5 6 1.0
 6 7 1.0 8 1.0 9 1.0
 7
 8
 9 10 1.0 11 1.0 12 1.0
 10
 11
 12 13 1.0
 13 14 1.0 15 1.0 16 1.0
 14
 15
 16 17 1.0 18 1.0 19 1.0
 17
 18
 19 20 1.0
 20 21 1.0 22 1.0 23 1.0
 21
 22
 23 24 1.0 25 1.0 26 1.0
 24
 25
 26 27 1.0
 27

