%chk=PEG6.chk
# hf/3-21g geom=connectivity

Title Card Required

0 1
 C                 -3.87096802    1.00978580   -0.00036241
 H                 -3.51455616    0.00089010   -0.00057981
 H                 -3.51282076    1.51476465   -0.87307480
 H                 -4.94096670    1.01005688   -0.00202032
 O                 -3.39594130    1.68288251    1.16847908
 C                 -3.87226742    3.03121977    1.16876962
 H                 -4.94226610    3.03149084    1.16711171
 H                 -3.51412016    3.53619861    0.29605724
 C                 -3.36070019    3.75609315    2.42752200
 H                 -2.29070151    3.75582207    2.42917991
 H                 -3.71884745    3.25111430    3.30023439
 O                 -3.83702631    5.10443040    2.42781254
 C                 -3.36199959    5.77752711    3.59665404
 H                 -2.29200091    5.77725604    3.59831195
 H                 -3.72014685    5.27254826    4.46936642
 C                 -3.87496618    7.22958261    3.59696693
 H                 -3.51681892    7.73456145    2.72425454
 H                 -4.94496486    7.22985368    3.59530902
 O                 -3.39993947    7.90267932    4.76580842
 C                 -3.87626559    9.25101657    4.76609896
 H                 -4.94626427    9.25128764    4.76444106
 H                 -3.51811833    9.75599541    3.89338658
 C                 -3.36469835    9.97588995    6.02485134
 H                 -2.29469967    9.97561888    6.02650925
 H                 -3.72284561    9.47091111    6.89756373
 O                 -3.84102447   11.32422720    6.02514188
 C                 -3.36599776   11.99732391    7.19398338
 H                 -2.29599908   11.99705440    7.19564000
 H                 -3.72414319   11.49234398    8.06669588
 C                 -3.87896723   13.44937840    7.19429746
 H                 -3.52066443   13.95463369    6.32180896
 H                 -4.94896575   13.44991231    7.19260140
 O                 -3.40381760   14.12187039    8.36343705
 C                 -3.87941215   15.47046514    8.36485778
 H                 -4.94941062   15.47131767    8.36325627
 H                 -3.52103662   15.97596495    7.49254080
 C                 -3.36738570   16.19402857    9.62417699
 H                 -2.29738724   16.19317425    9.62577851
 H                 -3.72576208   15.68852961   10.49649412
 O                 -3.84297912   17.54262373    9.62559703
 C                 -3.36784568   18.21511001   10.79474647
 H                 -2.29784725   18.21452957   10.79648379
 H                 -3.72620352   17.70988111   11.66722766
 C                 -3.88039415   19.66731293   10.79560897
 H                 -4.95039255   19.66789250   10.79385261
 H                 -3.52202121   20.17254740    9.92313721
 O                 -3.40528095   20.33979206   11.96477075
 H                 -3.72455331   21.24514517   11.96571972

 1 2 1.0 3 1.0 4 1.0 5 1.0
 2
 3
 4
 5 6 1.0
 6 7 1.0 8 1.0 9 1.0
 7
 8
 9 10 1.0 11 1.0 12 1.0
 10
 11
 12 13 1.0
 13 14 1.0 15 1.0 16 1.0
 14
 15
 16 17 1.0 18 1.0 19 1.0
 17
 18
 19 20 1.0
 20 21 1.0 22 1.0 23 1.0
 21
 22
 23 24 1.0 25 1.0 26 1.0
 24
 25
 26 27 1.0
 27 28 1.0 29 1.0 30 1.0
 28
 29
 30 31 1.0 32 1.0 33 1.0
 31
 32
 33 34 1.0
 34 35 1.0 36 1.0 37 1.0
 35
 36
 37 38 1.0 39 1.0 40 1.0
 38
 39
 40 41 1.0
 41 42 1.0 43 1.0 44 1.0
 42
 43
 44 45 1.0 46 1.0 47 1.0
 45
 46
 47 48 1.0
 48

