--Link1--
%chk=molecule
#HF/6-31G* SCF=tight Test Pop=MK iop(6/33=2) NoSymm iop(6/42=6) opt

remark line goes here

0   1
    C   -3.8709680200        1.0097858000       -0.0003624100     
    H   -3.5145561600        0.0008901000       -0.0005798100     
    H   -3.5128207600        1.5147646500       -0.8730748000     
    H   -4.9409667000        1.0100568800       -0.0020203200     
    O   -3.3959413000        1.6828825100        1.1684790800     
    C   -3.8722674200        3.0312197700        1.1687696200     
    H   -4.9422661000        3.0314908400        1.1671117100     
    H   -3.5141201600        3.5361986100        0.2960572400     
    C   -3.3607001900        3.7560931500        2.4275220000     
    H   -2.2907015100        3.7558220700        2.4291799100     
    H   -3.7188474500        3.2511143000        3.3002343900     
    O   -3.8370263100        5.1044304000        2.4278125400     
    C   -3.3619995900        5.7775271100        3.5966540400     
    H   -2.2920009100        5.7772560400        3.5983119500     
    H   -3.7201468500        5.2725482600        4.4693664200     
    C   -3.8749661800        7.2295826100        3.5969669300     
    H   -3.5168189200        7.7345614500        2.7242545400     
    H   -4.9449648600        7.2298536800        3.5953090200     
    O   -3.3999394700        7.9026793200        4.7658084200     
    C   -3.8762655900        9.2510165700        4.7660989600     
    H   -4.9462642700        9.2512876400        4.7644410600     
    H   -3.5181183300        9.7559954100        3.8933865800     
    C   -3.3646983500        9.9758899500        6.0248513400     
    H   -2.2946996700        9.9756188800        6.0265092500     
    H   -3.7228456100        9.4709111100        6.8975637300     
    O   -3.8410244700       11.3242272000        6.0251418800     
    C   -3.3659977600       11.9973239100        7.1939833800     
    H   -2.2959990800       11.9970544000        7.1956400000     
    H   -3.7241431900       11.4923439800        8.0666958800     
    C   -3.8789672300       13.4493784000        7.1942974600     
    H   -3.5206644300       13.9546336900        6.3218089600     
    H   -4.9489657500       13.4499123100        7.1926014000     
    O   -3.4038176000       14.1218703900        8.3634370500     
    C   -3.8794121500       15.4704651400        8.3648577800     
    H   -4.9494106200       15.4713176700        8.3632562700     
    H   -3.5210366200       15.9759649500        7.4925408000     
    C   -3.3673857000       16.1940285700        9.6241769900     
    H   -2.2973872400       16.1931742500        9.6257785100     
    H   -3.7257620800       15.6885296100       10.4964941200     
    O   -3.8429791200       17.5426237300        9.6255970300     
    C   -3.3678456800       18.2151100100       10.7947464700     
    H   -2.2978472500       18.2145295700       10.7964837900     
    H   -3.7262035200       17.7098811100       11.6672276600     
    C   -3.8803941500       19.6673129300       10.7956089700     
    H   -4.9503925500       19.6678925000       10.7938526100     
    H   -3.5220212100       20.1725474000        9.9231372100     
    O   -3.4052809500       20.3397920600       11.9647707500     
    C   -3.8808637400       21.6883909700       11.9661843200     
    H   -4.9508621800       21.6892528300       11.9645739800     
    H   -3.5224765900       22.1938855500       11.0938690800     
    C   -3.3688413500       22.4119529600       13.2255060100     
    H   -2.2988429000       22.4110924600       13.2271145200     
    H   -3.7272263500       21.9064571000       14.0978214000     
    O   -3.8444270000       23.7605508500       13.2269213300     
    H   -3.5254679100       24.2120060700       14.0118119500     


